CSD_code = ATEWUR | q = 0 | S = 0 | Stoichiometry = C25H36Cl2N4Ti | MND = 5
 OpenBabel06162216193D

 68 70  0  0  1  0  0  0  0  0999 V2000
    4.9337    4.3739    3.5204 Ti  0  0  0  0  0  0  0  0  0  0  0  0
    2.6700    3.8948    3.4944 Cl  0  0  0  0  0  0  0  0  0  0  0  0
    7.1201    4.2441    4.2639 Cl  0  0  0  0  0  0  0  0  0  0  0  0
    5.0662    1.2207    4.2660 N   0  0  0  0  0  0  0  0  0  0  0  0
    5.1897    1.5767    2.1628 N   0  0  0  0  0  0  0  0  0  0  0  0
    4.6546    5.6696    4.7867 N   0  0  0  0  0  0  0  0  0  0  0  0
    5.1865    5.2368    1.9160 N   0  0  0  0  0  0  0  0  0  0  0  0
    5.1162    2.2098    3.3495 C   0  0  1  0  0  3  0  0  0  0  0  0
    5.1108   -0.0083    3.6613 C   0  0  0  0  0  0  0  0  0  0  0  0
    5.0848   -0.9209    4.2217 H   0  0  0  0  0  0  0  0  0  0  0  0
    5.1888    0.2165    2.3294 C   0  0  0  0  0  0  0  0  0  0  0  0
    5.2490   -0.4623    1.5029 H   0  0  0  0  0  0  0  0  0  0  0  0
    4.9943    1.3969    5.6792 C   0  0  0  0  0  0  0  0  0  0  0  0
    6.1782    1.4693    6.4182 C   0  0  0  0  0  0  0  0  0  0  0  0
    6.0819    1.6887    7.7843 C   0  0  0  0  0  0  0  0  0  0  0  0
    6.9885    1.7674    8.3664 H   0  0  0  0  0  0  0  0  0  0  0  0
    4.8530    1.8030    8.4196 C   0  0  0  0  0  0  0  0  0  0  0  0
    3.6972    1.6355    7.6717 C   0  0  0  0  0  0  0  0  0  0  0  0
    2.7351    1.6711    8.1618 H   0  0  0  0  0  0  0  0  0  0  0  0
    3.7434    1.4171    6.3012 C   0  0  0  0  0  0  0  0  0  0  0  0
    7.5108    1.2838    5.7646 C   0  0  0  0  0  0  0  0  0  0  0  0
    7.4967    0.4356    5.0811 H   0  0  0  0  0  0  0  0  0  0  0  0
    7.7726    2.1761    5.1944 H   0  0  0  0  0  0  0  0  0  0  0  0
    8.2791    1.1175    6.5143 H   0  0  0  0  0  0  0  0  0  0  0  0
    4.7868    2.0833    9.8896 C   0  0  0  0  0  0  0  0  0  0  0  0
    5.0348    3.1279   10.0776 H   0  0  0  0  0  0  0  0  0  0  0  0
    5.5023    1.4688   10.4322 H   0  0  0  0  0  0  0  0  0  0  0  0
    3.7902    1.8930   10.2794 H   0  0  0  0  0  0  0  0  0  0  0  0
    2.4904    1.1750    5.5202 C   0  0  0  0  0  0  0  0  0  0  0  0
    1.6361    1.1016    6.1875 H   0  0  0  0  0  0  0  0  0  0  0  0
    2.3092    1.9882    4.8148 H   0  0  0  0  0  0  0  0  0  0  0  0
    2.5660    0.2505    4.9478 H   0  0  0  0  0  0  0  0  0  0  0  0
    5.2732    2.2093    0.8899 C   0  0  0  0  0  0  0  0  0  0  0  0
    4.1192    2.3368    0.1162 C   0  0  0  0  0  0  0  0  0  0  0  0
    4.2357    2.9100   -1.1431 C   0  0  0  0  0  0  0  0  0  0  0  0
    3.3494    3.0217   -1.7510 H   0  0  0  0  0  0  0  0  0  0  0  0
    5.4590    3.3406   -1.6339 C   0  0  0  0  0  0  0  0  0  0  0  0
    6.5925    3.1810   -0.8462 C   0  0  0  0  0  0  0  0  0  0  0  0
    7.5512    3.5013   -1.2293 H   0  0  0  0  0  0  0  0  0  0  0  0
    6.5241    2.6137    0.4169 C   0  0  0  0  0  0  0  0  0  0  0  0
    2.7979    1.8606    0.6331 C   0  0  0  0  0  0  0  0  0  0  0  0
    2.0153    2.0355   -0.0999 H   0  0  0  0  0  0  0  0  0  0  0  0
    2.5398    2.3888    1.5536 H   0  0  0  0  0  0  0  0  0  0  0  0
    2.8296    0.7945    0.8580 H   0  0  0  0  0  0  0  0  0  0  0  0
    5.5722    3.9652   -2.9916 C   0  0  0  0  0  0  0  0  0  0  0  0
    4.6042    4.0084   -3.4837 H   0  0  0  0  0  0  0  0  0  0  0  0
    5.9665    4.9776   -2.9109 H   0  0  0  0  0  0  0  0  0  0  0  0
    6.2560    3.3928   -3.6169 H   0  0  0  0  0  0  0  0  0  0  0  0
    7.7527    2.4124    1.2484 C   0  0  0  0  0  0  0  0  0  0  0  0
    8.6383    2.7304    0.7051 H   0  0  0  0  0  0  0  0  0  0  0  0
    7.6873    2.9876    2.1753 H   0  0  0  0  0  0  0  0  0  0  0  0
    7.8684    1.3615    1.5159 H   0  0  0  0  0  0  0  0  0  0  0  0
    4.5363    5.1399    6.1171 C   0  0  0  0  0  0  0  0  0  0  0  0
    3.8877    5.7768    6.7410 H   0  0  0  0  0  0  0  0  0  0  0  0
    5.5231    5.0751    6.6173 H   0  0  0  0  0  0  0  0  0  0  0  0
    4.0966    4.1321    6.0821 H   0  0  0  0  0  0  0  0  0  0  0  0
    5.1455    7.0173    4.7704 C   0  0  0  0  0  0  0  0  0  0  0  0
    5.1030    7.4153    3.7532 H   0  0  0  0  0  0  0  0  0  0  0  0
    6.1922    7.0632    5.1272 H   0  0  0  0  0  0  0  0  0  0  0  0
    4.5400    7.6641    5.4256 H   0  0  0  0  0  0  0  0  0  0  0  0
    4.0887    5.6668    1.0776 C   0  0  0  0  0  0  0  0  0  0  0  0
    4.3213    5.4891    0.0159 H   0  0  0  0  0  0  0  0  0  0  0  0
    3.8966    6.7479    1.1990 H   0  0  0  0  0  0  0  0  0  0  0  0
    3.1752    5.1222    1.3236 H   0  0  0  0  0  0  0  0  0  0  0  0
    6.4042    5.8936    1.4955 C   0  0  0  0  0  0  0  0  0  0  0  0
    6.6510    5.6170    0.4577 H   0  0  0  0  0  0  0  0  0  0  0  0
    6.2962    6.9919    1.5256 H   0  0  0  0  0  0  0  0  0  0  0  0
    7.2390    5.6103    2.1387 H   0  0  0  0  0  0  0  0  0  0  0  0
  1  3  1  0  0  0  0
  1  6  1  0  0  0  0
  2  1  1  0  0  0  0
  4 13  1  0  0  0  0
  5 11  1  0  0  0  0
  5  8  1  0  0  0  0
  6 53  1  0  0  0  0
  7  1  1  0  0  0  0
  8  1  1  6  0  0  0
  8  4  1  0  0  0  0
  9 10  1  0  0  0  0
  9  4  1  0  0  0  0
 11  9  2  0  0  0  0
 12 11  1  0  0  0  0
 13 20  2  0  0  0  0
 13 14  1  0  0  0  0
 14 15  2  0  0  0  0
 15 16  1  0  0  0  0
 15 17  1  0  0  0  0
 17 25  1  0  0  0  0
 18 19  1  0  0  0  0
 18 17  2  0  0  0  0
 20 18  1  0  0  0  0
 21 14  1  0  0  0  0
 21 24  1  0  0  0  0
 22 21  1  0  0  0  0
 23 21  1  0  0  0  0
 25 26  1  0  0  0  0
 25 28  1  0  0  0  0
 25 27  1  0  0  0  0
 29 30  1  0  0  0  0
 29 20  1  0  0  0  0
 31 29  1  0  0  0  0
 32 29  1  0  0  0  0
 33  5  1  0  0  0  0
 34 41  1  0  0  0  0
 34 33  2  0  0  0  0
 35 34  1  0  0  0  0
 36 35  1  0  0  0  0
 37 35  2  0  0  0  0
 37 38  1  0  0  0  0
 38 40  2  0  0  0  0
 39 38  1  0  0  0  0
 40 33  1  0  0  0  0
 40 49  1  0  0  0  0
 41 44  1  0  0  0  0
 41 43  1  0  0  0  0
 42 41  1  0  0  0  0
 45 47  1  0  0  0  0
 45 37  1  0  0  0  0
 46 45  1  0  0  0  0
 48 45  1  0  0  0  0
 49 52  1  0  0  0  0
 49 51  1  0  0  0  0
 50 49  1  0  0  0  0
 53 55  1  0  0  0  0
 53 54  1  0  0  0  0
 56 53  1  0  0  0  0
 57  6  1  0  0  0  0
 57 59  1  0  0  0  0
 57 60  1  0  0  0  0
 58 57  1  0  0  0  0
 61 63  1  0  0  0  0
 61 64  1  0  0  0  0
 61  7  1  0  0  0  0
 62 61  1  0  0  0  0
 65 67  1  0  0  0  0
 65  7  1  0  0  0  0
 65 68  1  0  0  0  0
 66 65  1  0  0  0  0
M  END
