21
CSD_code = ATEWUR | q = 0 | S = 0 | Stoichiometry = C25H36Cl2N4Ti | MND = 5
Ti         4.93370        4.37390        3.52040
Cl         2.67000        3.89480        3.49440
Cl         7.12010        4.24410        4.26390
N          4.65460        5.66960        4.78670
N          5.18650        5.23680        1.91600
C          4.53630        5.13990        6.11710
C          5.14550        7.01730        4.77040
C          4.08870        5.66680        1.07760
C          6.40420        5.89360        1.49550
H          4.16750        4.13657        6.07003
H          3.85709        5.74342        6.68220
H          5.49621        5.14525        6.58979
H          5.21351        7.35991        3.75902
H          6.11415        7.04957        5.22381
H          4.47503        7.64774        5.31622
H          3.18889        5.17963        1.39051
H          4.29659        5.41217        0.05934
H          3.96868        6.72662        1.16286
H          7.21462        5.57413        2.11684
H          6.28556        6.95356        1.58102
H          6.61347        5.63911        0.47749
