68
CSD_code = ATEWUR | q = 0 | S = 0 | Stoichiometry = C25H36Cl2N4Ti | MND = 5
Ti        4.93368461003776    4.37393591926420    3.52043453441929
Cl        2.66996824129969    3.89479969667596    3.49437915332784
Cl        7.12013753878738    4.24409732483899    4.26390589597514
N         5.06616516804331    1.22067080523645    4.26599122333777
N         5.18973739905441    1.57667593646580    2.16278055925454
N         4.65463810200956    5.66957014117188    4.78668550772404
N         5.18653753348441    5.23677539794353    1.91601689486358
C         5.11620845194460    2.20977794935547    3.34951536305469
C         5.11078401879017   -0.00828627526269    3.66134984586512
H         5.08484780622554   -0.92094196479028    4.22172058675840
C         5.18883196820558    0.21651779138135    2.32936152193732
H         5.24896177913691   -0.46228631387872    1.50290029237845
C         4.99433072229572    1.39686477774118    5.67916358060007
C         6.17822083760048    1.46928989901660    6.41818835016657
C         6.08192832146422    1.68872415345786    7.78428527368939
H         6.98850366952054    1.76738105575476    8.36641803440211
C         4.85298290774211    1.80297680379620    8.41957971037987
C         3.69724526618120    1.63550931574223    7.67168742704088
H         2.73505174909101    1.67111331215267    8.16181760787109
C         3.74343873271814    1.41714447985217    6.30119384610138
C         7.51076738626908    1.28381451697626    5.76458390156884
H         7.49665758270567    0.43564772914095    5.08109717650833
H         7.77263764674879    2.17607051999920    5.19437127575667
H         8.27912073069203    1.11745896974196    6.51434258885641
C         4.78676981896539    2.08331062242002    9.88955742227659
H         5.03478374883514    3.12789750404624   10.07761648476918
H         5.50231285575937    1.46876520056263   10.43223704494661
H         3.79018617603379    1.89304383734390   10.27939893325374
C         2.49037659202851    1.17501865404839    5.52015982877873
H         1.63610903779657    1.10161542644663    6.18748380511718
H         2.30922271137268    1.98815238751593    4.81480014669365
H         2.56603986693911    0.25052251884957    4.94777608291135
C         5.27322185118290    2.20930431532413    0.88987397716886
C         4.11917448329401    2.33679372847174    0.11616554588974
C         4.23573932552655    2.91003816322201   -1.14312410172810
H         3.34938538162642    3.02171505551172   -1.75099299883816
C         5.45895266092650    3.34060408008572   -1.63394032017982
C         6.59254557743269    3.18095754361864   -0.84621730481464
H         7.55123601854589    3.50127682856815   -1.22927869511402
C         6.52405405790091    2.61372701094534    0.41689240298293
C         2.79792503311239    1.86062497615580    0.63309257017077
H         2.01532551817043    2.03548881905746   -0.09987436690645
H         2.53983226000132    2.38881127125051    1.55361199467258
H         2.82962046719056    0.79453743814459    0.85804524029930
C         5.57215762877940    3.96523128679150   -2.99160655893817
H         4.60415503059033    4.00842292832595   -3.48369243407119
H         5.96653291969252    4.97756594824056   -2.91094483815169
H         6.25603450065678    3.39284020246543   -3.61689193652828
C         7.75273598577766    2.41238784928448    1.24837671064713
H         8.63825197839734    2.73041341884267    0.70507243816268
H         7.68733002273302    2.98755978430012    2.17528917248066
H         7.86835051258801    1.36154320224853    1.51585008978072
C         4.53629156510450    5.13985185272007    6.11711853060073
H         3.88774126500699    5.77680035788101    6.74102031937445
H         5.52311381497772    5.07508565934475    6.61733815539041
H         4.09661943142279    4.13211298116459    6.08213942042278
C         5.14547936353803    7.01728103861614    4.77043645955224
H         5.10298091660210    7.41528787789874    3.75321875413027
H         6.19221691368945    7.06319281123847    5.12718253834414
H         4.54001944337253    7.66409593693981    5.42561213323967
C         4.08871747452952    5.66678632962263    1.07757863897329
H         4.32130279142536    5.48911539862392    0.01594887948314
H         3.89657537785622    6.74785554132237    1.19899999527281
H         3.17517776874883    5.12215338921150    1.32359710079835
C         6.40419142256456    5.89361870358643    1.49549135546055
H         6.65104570274980    5.61703978472230    0.45770927943679
H         6.29624113533333    6.99189205502631    1.52564246797918
H         7.23903542117976    5.61025833820127    2.13865948396988
